/*--------------------------------*- C++ -*----------------------------------*\
| =========                 |                                                 |
| \\      /  F ield         | OpenFOAM: The Open Source CFD Toolbox           |
|  \\    /   O peration     | Version:  2.3                                   |
|   \\  /    A nd           | Web:      www.OpenFOAM.org                      |
|    \\/     M anipulation  |                                                 |
\*---------------------------------------------------------------------------*/
/*   Windows 32 and 64 bit porting by blueCAPE: http://www.bluecape.com.pt   *\
|  Based on Windows porting (2.0.x v4) by Symscape: http://www.symscape.com   |
\*---------------------------------------------------------------------------*/
FoamFile
{
    version     2.0;
    format      ascii;
    class       dictionary;
    location    "constant/polyMesh";
    object      blockMeshDict;
}
// * * * * * * * * * * * * * * * * * * * * * * * * * * * * * * * * * * * * * //

convertToMeters 1;


vertices
(
    (-0.8 -0.5 -0.5)
    (0.8 -0.5 -0.5)
    (0.8 2.5 -0.5)
    (-0.8 2.5 -0.5)
    (-0.8 -0.5 2.5)
    (0.8 -0.5 2.5)
    (0.8 2.5 2.5)
    (-0.8 2.5 2.5)
);

blocks
(
    // hex (0 1 2 3 4 5 6 7) (64 120 120) simpleGrading (1 1 1)	// 2.5 cm
    hex (0 1 2 3 4 5 6 7) (24 45 45) simpleGrading (1 1 1)	// 5 cm
);

ch

edges
(

);



boundary
(

);



mergePatchPairs
(

);



// ************************************************************************* //
