/*--------------------------------*- C++ -*----------------------------------*\
| =========                 |                                                 |
| \\      /  F ield         | OpenFOAM: The Open Source CFD Toolbox           |
|  \\    /   O peration     | Version:  2.3.1                                 |
|   \\  /    A nd           | Web:      www.OpenFOAM.org                      |
|    \\/     M anipulation  |                                                 |
\*---------------------------------------------------------------------------*/
FoamFile
{
    version     2.0;
    format      ascii;
    class       scalarAverageField;
    object      values;
}
// * * * * * * * * * * * * * * * * * * * * * * * * * * * * * * * * * * * * * //

// Average
293.55

// Data on points
28
(

//minx
19.6738431
19.6738431
19.90445758
20.03757559
20.1493667
20.31506833
20.473774
20.65152119
20.74447954
20.77280845
20.77401897
20.78332353
20.78236118
20.78236118



// maxx
19.6738431
19.6738431
19.90445758
20.03757559
20.1493667
20.31506833
20.473774
20.65152119
20.74447954
20.77280845
20.77401897
20.78332353
20.78236118
20.78236118

)

// ************************************************************************* //
