/*--------------------------------*- C++ -*----------------------------------*\
| =========                 |                                                 |
| \\      /  F ield         | OpenFOAM: The Open Source CFD Toolbox           |
|  \\    /   O peration     | Version:  2.3.1                                 |
|   \\  /    A nd           | Web:      www.OpenFOAM.org                      |
|    \\/     M anipulation  |                                                 |
\*---------------------------------------------------------------------------*/
FoamFile
{
    version     2.0;
    format      ascii;
    class       scalarAverageField;
    object      values;
}
// * * * * * * * * * * * * * * * * * * * * * * * * * * * * * * * * * * * * * //

// Average
293.55

// Data on points
28
(

//minx
292.8238431
292.8238431
293.0544576
293.1875756
293.2993667
293.4650683
293.623774
293.8015212
293.8944795
293.9228084
293.924019
293.9333235
293.9323612
293.9323612


// maxx
292.8238431
292.8238431
293.0544576
293.1875756
293.2993667
293.4650683
293.623774
293.8015212
293.8944795
293.9228084
293.924019
293.9333235
293.9323612
293.9323612

)

// ************************************************************************* //
