/*--------------------------------*- C++ -*----------------------------------*\
| =========                 |                                                 |
| \\      /  F ield         | OpenFOAM: The Open Source CFD Toolbox           |
|  \\    /   O peration     | Version:  2.3                                   |
|   \\  /    A nd           | Web:      www.OpenFOAM.org                      |
|    \\/     M anipulation  |                                                 |
\*---------------------------------------------------------------------------*/
/*   Windows 32 and 64 bit porting by blueCAPE: http://www.bluecape.com.pt   *\
|  Based on Windows porting (2.0.x v4) by Symscape: http://www.symscape.com   |
\*---------------------------------------------------------------------------*/
FoamFile
{
    version     2.0;
    format      ascii;
    class       volScalarField;
    location    "0";
    object      alphat;
}
// * * * * * * * * * * * * * * * * * * * * * * * * * * * * * * * * * * * * * //

dimensions      [ 1 -1 -1 0 0 0 0 ];

internalField   uniform 0;


boundaryField
{

    ".*OUTLET.*"
    {
        type            calculated;
        value           uniform 0;
    }


    ".*INLET.*"
    {
        type            calculated;
        value           uniform 0;
    }


    ".*(FLOOR|CEILING|BACK|SIDE|manikin).*"
    {
        type            compressible::alphatWallFunction;
        value           uniform 0;
    }
	
}



// ************************************************************************* //
