/*--------------------------------*- C++ -*----------------------------------*\
| =========                 |                                                 |
| \\      /  F ield         | OpenFOAM: The Open Source CFD Toolbox           |
|  \\    /   O peration     | Version:  2.3                                   |
|   \\  /    A nd           | Web:      www.OpenFOAM.org                      |
|    \\/     M anipulation  |                                                 |
\*---------------------------------------------------------------------------*/
/*   Windows 32 and 64 bit porting by blueCAPE: http://www.bluecape.com.pt   *\
|  Based on Windows porting (2.0.x v4) by Symscape: http://www.symscape.com   |
\*---------------------------------------------------------------------------*/
FoamFile
{
    version     2.0;
    format      ascii;
    class       volScalarField;
    location    "0";
    object      v2;
}
// * * * * * * * * * * * * * * * * * * * * * * * * * * * * * * * * * * * * * //


dimensions      [0 2 -2 0 0 0 0];

internalField   uniform 1.8e-4;


boundaryField
{

    ".*OUTLET.*"
    {
        type            inletOutlet;
        value           uniform 1.8e-4;
        inletValue      uniform 1.8e-4;
    }


    ".*INLET.*"
    {
        type            fixedValue;
        value           uniform 1.8e-4;
    }


    ".*(FLOOR|CEILING|BACK|SIDE|manikin).*"
    {
        type            compressible::v2WallFunction;
        value           uniform 1e-10;
    }

}



// ************************************************************************* //
